38
H8 C18 S6 N6
C 10.319218 -0.975014 -0.112460
C 9.989233 0.240882 -0.527854
N 8.683964 0.527851 -0.486781
C 8.032784 -0.459143 -0.045350
S 8.943268 -1.810767 0.354826
C 6.612399 -0.441379 0.108076
N 5.949453 -1.419304 0.550389
C 4.650647 -1.119758 0.592480
C 4.320718 0.100938 0.173268
S 5.716765 0.917919 -0.307592
C 3.029384 0.698756 0.112453
C 2.704119 1.990576 0.095608
N 1.404054 2.273789 0.043735
C 0.718164 1.216295 0.022245
S 1.614074 -0.213464 0.049972
C -0.718170 1.216311 -0.022642
N -1.404040 2.273822 -0.044021
C -2.704111 1.990639 -0.095929
C -3.029400 0.698829 -0.112905
S -1.614107 -0.213425 -0.050551
C -4.320758 0.101040 -0.173692
C -4.650791 -1.119462 -0.593383
N -5.949578 -1.419057 -0.551028
C -6.612411 -0.441337 -0.108089
S -5.716674 0.917770 0.307965
C -8.032753 -0.459168 0.045749
N -8.683787 0.527641 0.487809
C -9.989052 0.240683 0.529128
C -10.319178 -0.975026 0.113299
S -8.943377 -1.810604 -0.354738
H 11.285166 -1.408951 -0.060276
H 10.672657 0.973544 -0.878114
H 3.960642 -1.840867 0.957018
H 3.407757 2.786147 0.130574
H -3.407740 2.786223 -0.130767
H -3.960874 -1.840399 -0.958426
H -10.672347 0.973197 0.879945
H -11.285147 -1.408927 0.061220